
<net version="1.9" junctionCornerDetail="5" limitTurnSpeed="5.50" xmlns:xsi="http://www.w3.org/2001/XMLSchema-instance" xsi:noNamespaceSchemaLocation="http://sumo.dlr.de/xsd/net_file.xsd">

    <location netOffset="0.00,0.00" convBoundary="0.00,0.00,600.00,0.00" origBoundary="-10000000000.00,-10000000000.00,10000000000.00,10000000000.00" projParameter="!"/>

    <edge id="gneE9" from="gneJ4" to="gneJ8" priority="-1">
        <lane id="gneE9_0" index="0" speed="13.89" length="600.00" shape="0.00,-4.80 600.00,-4.80"/>
        <lane id="gneE9_1" index="1" speed="13.89" length="600.00" shape="0.00,-1.60 600.00,-1.60"/>
    </edge>

    <junction id="gneJ4" type="dead_end" x="0.00" y="0.00" incLanes="" intLanes="" shape="0.00,0.00 0.00,-6.40"/>
    <junction id="gneJ8" type="dead_end" x="600.00" y="0.00" incLanes="gneE9_0 gneE9_1" intLanes="" shape="600.00,-6.40 600.00,0.00"/>

</net>