<?xml version="1.0" encoding="UTF-8"?>

<!-- generated on 2024-02-20 16:22:40 by Eclipse SUMO netedit Version 1.12.0
-->
<routes>

    <vType id="emergency" vClass="emergency" guiShape='emergency'/>
    <vType id="passenger" vClass="passenger" maxSpeed='7'/>
    
    <route edges="gneE9" color="yellow" id="route_0"/>

    <vehicle id="vehicle_1" type="passenger" depart="0.00" route="route_0" departLane="1"/>
    <vehicle id="vehicle_2" type="passenger" depart="7.90" route="route_0" departLane="0"/>
    <vehicle id="vehicle_3" type="passenger" depart="10.00" route="route_0" departLane="1"/>
    <vehicle id="vehicle_4" type="passenger" depart="19.80" route="route_0" departLane="0"/>
    <vehicle id="vehicle_5" type="passenger" depart="22.00" route="route_0" departLane="1"/>
    <vehicle id="vehicle_0" type="emergency" depart="45.00" route="route_0" departLane="1" arrivalLane="1"/>
	<vehicle id="vehicle_6" type="passenger" depart="52.90" route="route_0" departLane="1"/>
    <vehicle id="vehicle_7" type="passenger" depart="55.00" route="route_0" departLane="0"/>
    <vehicle id="vehicle_8" type="passenger" depart="64.90" route="route_0" departLane="1"/>
    <vehicle id="vehicle_9" type="passenger" depart="67.00" route="route_0" departLane="0"/>
    <vehicle id="vehicle_10" type="passenger" depart="74.00" route="route_0" departLane="1"/>
</routes>
